<?xml version='1.0' encoding='UTF-8' standalone='yes' ?><hierarchy rotation="0"><node index="0" text="" class="android.widget.FrameLayout" package="com.molinobriganti.operatorlite" content-desc="" checkable="false" checked="false" clickable="false" enabled="true" focusable="false" focused="false" scrollable="false" long-clickable="false" password="false" selected="false" bounds="[350,103][930,648]"><node index="0" text="" class="android.widget.FrameLayout" package="com.molinobriganti.operatorlite" content-desc="" checkable="false" checked="false" clickable="false" enabled="true" focusable="false" focused="false" scrollable="false" long-clickable="false" password="false" selected="false" bounds="[350,103][930,648]"><node index="0" text="" class="android.widget.FrameLayout" package="com.molinobriganti.operatorlite" content-desc="" checkable="false" checked="false" clickable="false" enabled="true" focusable="false" focused="false" scrollable="false" long-clickable="false" password="false" selected="false" bounds="[350,103][930,648]"><node index="0" text="" class="android.widget.LinearLayout" package="com.molinobriganti.operatorlite" content-desc="" checkable="false" checked="false" clickable="false" enabled="true" focusable="false" focused="false" scrollable="false" long-clickable="false" password="false" selected="false" bounds="[350,103][930,648]"><node index="0" text="" class="android.widget.FrameLayout" package="com.molinobriganti.operatorlite" content-desc="" checkable="false" checked="false" clickable="false" enabled="true" focusable="false" focused="false" scrollable="false" long-clickable="false" password="false" selected="false" bounds="[353,112][929,568]"><node index="0" text="" class="android.widget.FrameLayout" package="com.molinobriganti.operatorlite" content-desc="" checkable="false" checked="false" clickable="false" enabled="true" focusable="false" focused="false" scrollable="false" long-clickable="false" password="false" selected="false" bounds="[365,121][917,568]"><node index="0" text="" class="android.widget.LinearLayout" package="com.molinobriganti.operatorlite" content-desc="" checkable="false" checked="false" clickable="false" enabled="true" focusable="false" focused="false" scrollable="false" long-clickable="false" password="false" selected="false" bounds="[365,126][917,563]"><node index="0" text="FARINA INTEGRALE da 5kg" class="android.widget.TextView" package="com.molinobriganti.operatorlite" content-desc="" checkable="false" checked="false" clickable="false" enabled="true" focusable="false" focused="false" scrollable="false" long-clickable="false" password="false" selected="false" bounds="[375,136][907,165]" /><node index="1" text="FM-INT-5" class="android.widget.TextView" package="com.molinobriganti.operatorlite" content-desc="" checkable="false" checked="false" clickable="false" enabled="true" focusable="false" focused="false" scrollable="false" long-clickable="false" password="false" selected="false" bounds="[375,167][907,189]" /><node index="2" text="Quantità (colli)" class="android.widget.TextView" package="com.molinobriganti.operatorlite" content-desc="" checkable="false" checked="false" clickable="false" enabled="true" focusable="false" focused="false" scrollable="false" long-clickable="false" password="false" selected="false" bounds="[375,197][907,219]" /><node index="3" text="" class="android.widget.LinearLayout" package="com.molinobriganti.operatorlite" content-desc="" checkable="false" checked="false" clickable="false" enabled="true" focusable="false" focused="false" scrollable="false" long-clickable="false" password="false" selected="false" bounds="[375,225][907,265]"><node index="0" text="1" class="android.widget.Button" package="com.molinobriganti.operatorlite" content-desc="" checkable="false" checked="false" clickable="true" enabled="true" focusable="true" focused="false" scrollable="false" long-clickable="false" password="false" selected="false" bounds="[375,225][503,265]" /><node index="1" text="2" class="android.widget.Button" package="com.molinobriganti.operatorlite" content-desc="" checkable="false" checked="false" clickable="true" enabled="true" focusable="true" focused="false" scrollable="false" long-clickable="false" password="false" selected="false" bounds="[509,225][637,265]" /><node index="2" text="5" class="android.widget.Button" package="com.molinobriganti.operatorlite" content-desc="" checkable="false" checked="false" clickable="true" enabled="true" focusable="true" focused="false" scrollable="false" long-clickable="false" password="false" selected="false" bounds="[643,225][772,265]" /><node index="3" text="10" class="android.widget.Button" package="com.molinobriganti.operatorlite" content-desc="" checkable="false" checked="false" clickable="true" enabled="true" focusable="true" focused="false" scrollable="false" long-clickable="false" password="false" selected="false" bounds="[778,225][907,265]" /></node><node index="4" text="Selezionati: 1 colli" class="android.widget.TextView" package="com.molinobriganti.operatorlite" content-desc="" checkable="false" checked="false" clickable="false" enabled="true" focusable="false" focused="false" scrollable="false" long-clickable="false" password="false" selected="false" bounds="[375,273][907,297]" /><node index="5" text="Posizione scaffale" class="android.widget.TextView" package="com.molinobriganti.operatorlite" content-desc="" checkable="false" checked="false" clickable="false" enabled="true" focusable="false" focused="false" scrollable="false" long-clickable="false" password="false" selected="false" bounds="[375,305][907,327]" /><node index="6" text="" class="android.widget.ListView" package="com.molinobriganti.operatorlite" content-desc="" checkable="false" checked="false" clickable="true" enabled="true" focusable="true" focused="true" scrollable="false" long-clickable="false" password="false" selected="false" bounds="[375,333][907,553]"><node index="0" text="Pos B10.1 • Disp 5 • Lotto 52826" class="android.widget.TextView" package="com.molinobriganti.operatorlite" content-desc="" checkable="false" checked="false" clickable="false" enabled="true" focusable="false" focused="false" scrollable="false" long-clickable="false" password="false" selected="false" bounds="[375,333][907,380]" /></node></node></node></node><node index="1" text="" class="android.widget.LinearLayout" package="com.molinobriganti.operatorlite" content-desc="" checkable="false" checked="false" clickable="false" enabled="true" focusable="false" focused="false" scrollable="false" long-clickable="false" password="false" selected="false" bounds="[353,568][929,645]"><node index="0" text="" class="android.widget.LinearLayout" package="com.molinobriganti.operatorlite" content-desc="" checkable="false" checked="false" clickable="false" enabled="true" focusable="false" focused="false" scrollable="false" long-clickable="false" password="false" selected="false" bounds="[365,576][917,630]"><node index="2" text="Annulla" class="android.widget.Button" package="com.molinobriganti.operatorlite" content-desc="" checkable="false" checked="false" clickable="true" enabled="true" focusable="true" focused="false" scrollable="false" long-clickable="false" password="false" selected="false" bounds="[458,580][823,628]" /></node></node></node></node></node></node></hierarchy>